# generated using pymatgen
data
_TiAl


_chemical_name_mineral 'TiAl-Gamma'
_symmetry_space_group_name_H-M   P4/mmm

_cell_length_a   2.82410522

_cell_length_b   2.82410522

_cell_length_c   4.06471199

_cell_angle_alpha   90.00000000

_cell_angle_beta   90.00000000

_cell_angle_gamma   90.00000000

_symmetry_Int_Tables_number   123

_chemical_formula_structural   TiAl

_chemical_formula_sum   'Ti1 Al1'

_cell_volume   32.41839620

_cell_formula_units_Z   1

loop_
 
_symmetry_equiv_pos_site_id
 
_symmetry_equiv_pos_as_xyz
  
1  'x, y, z'
  
2  '-x, -y, -z'
  
3  '-y, x, z'
  
4  'y, -x, -z'
  
5  '-x, -y, z'
  
6  'x, y, -z'
  
7  'y, -x, z'
  
8  '-y, x, -z'
  
9  'x, -y, -z'
  
10  '-x, y, z'
  
11  '-y, -x, -z'
  
12  'y, x, z'
  
13  '-x, y, -z'
  
14  'x, -y, z'
  
15  'y, x, -z'
  
16  '-y, -x, z'

loop_
 
_atom_site_type_symbol
 
_atom_site_label
 
_atom_site_symmetry_multiplicity
 
_atom_site_fract_x
 
_atom_site_fract_y
 
_atom_site_fract_z
 
_atom_site_occupancy
  
Ti  Ti0  1  0.500000  0.500000  0.500000  1
  
Al  Al1  1  0.000000  0.000000  0.000000  1
